MODEL 1
REMARK VINA RESULT:      -5.5      0.000      0.000
REMARK  2 active torsions:
REMARK  status: ('A' for Active; 'I' for Inactive)
REMARK    1  A    between atoms: C_4  and  C_10 
REMARK    2  A    between atoms: C_5  and  C_10 
ROOT
HETATM    1  N   UNK     0      12.804  -3.384   0.305  0.00  0.00     0.614 N 
HETATM    2  C   UNK     0      12.832  -1.806   0.081  0.00  0.00     0.270 A 
HETATM    3  C   UNK     0      12.802   0.292  -1.562  0.00  0.00     0.002 A 
HETATM    4  C   UNK     0      12.942   1.320   0.746  0.00  0.00     0.002 A 
HETATM    5  C   UNK     0      12.942   0.666   1.074  0.00  0.00     0.004 A 
HETATM    6  C   UNK     0      12.775  -1.230  -1.345  0.00  0.00     0.037 A 
HETATM    7  C   UNK     0      12.913  -0.329   0.982  0.00  0.00     0.035 A 
HETATM    8  C   UNK     0      12.915  -0.857   1.291  0.00  0.00     0.037 A 
HETATM    9  C   UNK     0      12.879   1.870  -0.789  0.00  0.00     0.000 A 
HETATM   10  C   UNK     0      12.880   0.957  -0.313  0.00  0.00     0.000 A 
HETATM   11  C   UNK     0      13.025   1.615   2.283  0.00  0.00     0.000 A 
ENDROOT
TORSDOF 2
ENDMDL
MODEL 2
REMARK VINA RESULT:      -5.5      2.104      3.664
REMARK  2 active torsions:
REMARK  status: ('A' for Active; 'I' for Inactive)
REMARK    1  A    between atoms: C_4  and  C_10 
REMARK    2  A    between atoms: C_5  and  C_10 
ROOT
HETATM    1  N   UNK     0      12.895   2.989   2.058  0.00  0.00     0.614 N 
HETATM    2  C   UNK     0      12.896   1.565   1.341  0.00  0.00     0.270 A 
HETATM    3  C   UNK     0      12.815  -1.094   1.491  0.00  0.00     0.002 A 
HETATM    4  C   UNK     0      12.964  -0.622  -0.991  0.00  0.00     0.002 A 
HETATM    5  C   UNK     0      12.978   0.102  -0.886  0.00  0.00     0.004 A 
HETATM    6  C   UNK     0      12.814   0.280   2.183  0.00  0.00     0.037 A 
HETATM    7  C   UNK     0      12.964   0.866  -0.242  0.00  0.00     0.035 A 
HETATM    8  C   UNK     0      12.978   1.476  -0.194  0.00  0.00     0.037 A 
HETATM    9  C   UNK     0      12.876  -1.949  -0.045  0.00  0.00     0.000 A 
HETATM   10  C   UNK     0      12.897  -0.928   0.086  0.00  0.00     0.000 A 
HETATM   11  C   UNK     0      13.060   0.013  -2.420  0.00  0.00     0.000 A 
ENDROOT
TORSDOF 2
ENDMDL
MODEL 3
REMARK VINA RESULT:      -5.5      1.853      3.106
REMARK  2 active torsions:
REMARK  status: ('A' for Active; 'I' for Inactive)
REMARK    1  A    between atoms: C_4  and  C_10 
REMARK    2  A    between atoms: C_5  and  C_10 
ROOT
HETATM    1  N   UNK     0      13.148   2.052   2.396  0.00  0.00     0.614 N 
HETATM    2  C   UNK     0      13.017   1.055   1.159  0.00  0.00     0.270 A 
HETATM    3  C   UNK     0      12.789   0.650  -1.465  0.00  0.00     0.002 A 
HETATM    4  C   UNK     0      12.802  -1.682  -0.481  0.00  0.00     0.002 A 
HETATM    5  C   UNK     0      12.866  -1.428   0.203  0.00  0.00     0.004 A 
HETATM    6  C   UNK     0      12.915   1.612  -0.272  0.00  0.00     0.037 A 
HETATM    7  C   UNK     0      12.939  -0.640   0.812  0.00  0.00     0.035 A 
HETATM    8  C   UNK     0      12.992  -0.466   1.396  0.00  0.00     0.037 A 
HETATM    9  C   UNK     0      12.698  -1.031  -1.974  0.00  0.00     0.000 A 
HETATM   10  C   UNK     0      12.787  -0.691  -1.006  0.00  0.00     0.000 A 
HETATM   11  C   UNK     0      12.841  -2.949   0.439  0.00  0.00     0.000 A 
ENDROOT
TORSDOF 2
ENDMDL
MODEL 4
REMARK VINA RESULT:      -5.5      1.525      2.515
REMARK  2 active torsions:
REMARK  status: ('A' for Active; 'I' for Inactive)
REMARK    1  A    between atoms: C_4  and  C_10 
REMARK    2  A    between atoms: C_5  and  C_10 
ROOT
HETATM    1  N   UNK     0      13.074  -0.136  -2.757  0.00  0.00     0.614 N 
HETATM    2  C   UNK     0      12.995  -0.128  -1.165  0.00  0.00     0.270 A 
HETATM    3  C   UNK     0      12.829  -1.448   1.145  0.00  0.00     0.002 A 
HETATM    4  C   UNK     0      12.889   0.988   1.830  0.00  0.00     0.002 A 
HETATM    5  C   UNK     0      12.933   1.216   1.137  0.00  0.00     0.004 A 
HETATM    6  C   UNK     0      12.905  -1.455  -0.392  0.00  0.00     0.037 A 
HETATM    7  C   UNK     0      12.972   0.980   0.167  0.00  0.00     0.035 A 
HETATM    8  C   UNK     0      13.009   1.209  -0.399  0.00  0.00     0.037 A 
HETATM    9  C   UNK     0      12.795  -0.451   2.594  0.00  0.00     0.000 A 
HETATM   10  C   UNK     0      12.857  -0.114   1.623  0.00  0.00     0.000 A 
HETATM   11  C   UNK     0      12.947   2.552   1.902  0.00  0.00     0.000 A 
ENDROOT
TORSDOF 2
ENDMDL
MODEL 5
REMARK VINA RESULT:      -5.4      0.731      2.294
REMARK  2 active torsions:
REMARK  status: ('A' for Active; 'I' for Inactive)
REMARK    1  A    between atoms: C_4  and  C_10 
REMARK    2  A    between atoms: C_5  and  C_10 
ROOT
HETATM    1  N   UNK     0      12.782  -3.004   0.178  0.00  0.00     0.614 N 
HETATM    2  C   UNK     0      12.798  -1.422   0.368  0.00  0.00     0.270 A 
HETATM    3  C   UNK     0      12.872   0.710   1.965  0.00  0.00     0.002 A 
HETATM    4  C   UNK     0      12.788   1.690  -0.367  0.00  0.00     0.002 A 
HETATM    5  C   UNK     0      12.772   1.029  -0.680  0.00  0.00     0.004 A 
HETATM    6  C   UNK     0      12.856  -0.817   1.782  0.00  0.00     0.037 A 
HETATM    7  C   UNK     0      12.771   0.036  -0.566  0.00  0.00     0.035 A 
HETATM    8  C   UNK     0      12.756  -0.498  -0.863  0.00  0.00     0.037 A 
HETATM    9  C   UNK     0      12.850   2.272   1.157  0.00  0.00     0.000 A 
HETATM   10  C   UNK     0      12.827   1.349   0.701  0.00  0.00     0.000 A 
HETATM   11  C   UNK     0      12.730   1.953  -1.910  0.00  0.00     0.000 A 
ENDROOT
TORSDOF 2
ENDMDL
MODEL 6
REMARK VINA RESULT:      -4.8      9.959     11.638
REMARK  2 active torsions:
REMARK  status: ('A' for Active; 'I' for Inactive)
REMARK    1  A    between atoms: C_4  and  C_10 
REMARK    2  A    between atoms: C_5  and  C_10 
ROOT
HETATM    1  N   UNK     0       9.243   8.637  -8.662  0.00  0.00     0.614 N 
HETATM    2  C   UNK     0      10.688   8.766  -8.000  0.00  0.00     0.270 A 
HETATM    3  C   UNK     0      12.988  10.081  -7.717  0.00  0.00     0.002 A 
HETATM    4  C   UNK     0      13.235   8.074  -6.195  0.00  0.00     0.002 A 
HETATM    5  C   UNK     0      12.569   7.822  -6.365  0.00  0.00     0.004 A 
HETATM    6  C   UNK     0      11.594   9.957  -8.356  0.00  0.00     0.037 A 
HETATM    7  C   UNK     0      11.725   7.940  -6.887  0.00  0.00     0.035 A 
HETATM    8  C   UNK     0      11.176   7.698  -7.004  0.00  0.00     0.037 A 
HETATM    9  C   UNK     0      14.150   9.359  -6.612  0.00  0.00     0.000 A 
HETATM   10  C   UNK     0      13.217   8.991  -6.841  0.00  0.00     0.000 A 
HETATM   11  C   UNK     0      13.058   6.754  -5.370  0.00  0.00     0.000 A 
ENDROOT
TORSDOF 2
ENDMDL
MODEL 7
REMARK VINA RESULT:      -4.7     10.457     11.963
REMARK  2 active torsions:
REMARK  status: ('A' for Active; 'I' for Inactive)
REMARK    1  A    between atoms: C_4  and  C_10 
REMARK    2  A    between atoms: C_5  and  C_10 
ROOT
HETATM    1  N   UNK     0       7.861  10.258  -5.098  0.00  0.00     0.614 N 
HETATM    2  C   UNK     0       8.847   9.541  -6.125  0.00  0.00     0.270 A 
HETATM    3  C   UNK     0       9.457   8.816  -8.615  0.00  0.00     0.002 A 
HETATM    4  C   UNK     0      11.381   7.932  -7.228  0.00  0.00     0.002 A 
HETATM    5  C   UNK     0      11.094   8.189  -6.606  0.00  0.00     0.004 A 
HETATM    6  C   UNK     0       8.506   9.508  -7.625  0.00  0.00     0.037 A 
HETATM    7  C   UNK     0      10.350   8.681  -6.155  0.00  0.00     0.035 A 
HETATM    8  C   UNK     0      10.142   8.881  -5.616  0.00  0.00     0.037 A 
HETATM    9  C   UNK     0      10.964   7.929  -8.806  0.00  0.00     0.000 A 
HETATM   10  C   UNK     0      10.574   8.286  -7.923  0.00  0.00     0.000 A 
HETATM   11  C   UNK     0      12.388   7.530  -6.098  0.00  0.00     0.000 A 
ENDROOT
TORSDOF 2
ENDMDL
MODEL 8
REMARK VINA RESULT:      -4.7     10.511     12.085
REMARK  2 active torsions:
REMARK  status: ('A' for Active; 'I' for Inactive)
REMARK    1  A    between atoms: C_4  and  C_10 
REMARK    2  A    between atoms: C_5  and  C_10 
ROOT
HETATM    1  N   UNK     0       9.806   7.651 -10.792  0.00  0.00     0.614 N 
HETATM    2  C   UNK     0       9.906   8.118  -9.271  0.00  0.00     0.270 A 
HETATM    3  C   UNK     0       8.945   9.519  -7.218  0.00  0.00     0.002 A 
HETATM    4  C   UNK     0      11.012   8.397  -6.283  0.00  0.00     0.002 A 
HETATM    5  C   UNK     0      11.161   8.068  -6.920  0.00  0.00     0.004 A 
HETATM    6  C   UNK     0       8.848   9.069  -8.686  0.00  0.00     0.037 A 
HETATM    7  C   UNK     0      10.907   7.909  -7.873  0.00  0.00     0.035 A 
HETATM    8  C   UNK     0      11.064   7.617  -8.387  0.00  0.00     0.037 A 
HETATM    9  C   UNK     0       9.860   9.406  -5.720  0.00  0.00     0.000 A 
HETATM   10  C   UNK     0      10.083   8.936  -6.608  0.00  0.00     0.000 A 
HETATM   11  C   UNK     0      12.318   7.568  -6.036  0.00  0.00     0.000 A 
ENDROOT
TORSDOF 2
ENDMDL
MODEL 9
REMARK VINA RESULT:      -4.6     10.779     12.553
REMARK  2 active torsions:
REMARK  status: ('A' for Active; 'I' for Inactive)
REMARK    1  A    between atoms: C_4  and  C_10 
REMARK    2  A    between atoms: C_5  and  C_10 
ROOT
HETATM    1  N   UNK     0      14.311  10.918  -9.565  0.00  0.00     0.614 N 
HETATM    2  C   UNK     0      13.537   9.874  -8.643  0.00  0.00     0.270 A 
HETATM    3  C   UNK     0      13.333   8.521  -6.356  0.00  0.00     0.002 A 
HETATM    4  C   UNK     0      11.319   7.774  -7.694  0.00  0.00     0.002 A 
HETATM    5  C   UNK     0      11.496   8.201  -8.261  0.00  0.00     0.004 A 
HETATM    6  C   UNK     0      14.080   9.529  -7.245  0.00  0.00     0.037 A 
HETATM    7  C   UNK     0      12.128   8.866  -8.658  0.00  0.00     0.035 A 
HETATM    8  C   UNK     0      12.243   9.209  -9.151  0.00  0.00     0.037 A 
HETATM    9  C   UNK     0      11.945   7.449  -6.223  0.00  0.00     0.000 A 
HETATM   10  C   UNK     0      12.181   8.044  -7.029  0.00  0.00     0.000 A 
HETATM   11  C   UNK     0      10.203   7.537  -8.769  0.00  0.00     0.000 A 
ENDROOT
TORSDOF 2
ENDMDL
