REMARK  2 active torsions:
REMARK  status: ('A' for Active; 'I' for Inactive)
REMARK    1  A    between atoms: C_4  and  C_10 
REMARK    2  A    between atoms: C_5  and  C_10 
ROOT
HETATM    1  N   UNK     0       5.855   2.431   0.000  0.00  0.00     0.614 N 
HETATM    2  C   UNK     0       5.855   0.837   0.000  0.00  0.00     0.270 A 
HETATM    3  C   UNK     0       7.187  -1.471   0.000  0.00  0.00     0.002 A 
HETATM    4  C   UNK     0       4.753  -2.165   0.000  0.00  0.00     0.002 A 
HETATM    5  C   UNK     0       4.521  -1.471   0.000  0.00  0.00     0.004 A 
HETATM    6  C   UNK     0       7.187   0.067   0.000  0.00  0.00     0.037 A 
HETATM    7  C   UNK     0       4.753  -0.499   0.000  0.00  0.00     0.035 A 
HETATM    8  C   UNK     0       4.521   0.067   0.000  0.00  0.00     0.037 A 
HETATM    9  C   UNK     0       6.197  -2.925   0.000  0.00  0.00     0.000 A 
HETATM   10  C   UNK     0       5.855  -1.954   0.000  0.00  0.00     0.000 A 
HETATM   11  C   UNK     0       3.188  -2.241   0.000  0.00  0.00     0.000 A 
ENDROOT
TORSDOF 2
